Circuit: *** SPICE deck for cell comp_sz2_sim{lay} from library folded

Ignoring BSIM parameter HDIF
Ignoring BSIM parameter ACM
Ignoring BSIM parameter XL
Ignoring BSIM parameter XW
Ignoring BSIM parameter HDIF
Ignoring BSIM parameter ACM
Ignoring BSIM parameter XL
Ignoring BSIM parameter XW
Ignoring BSIM parameter HDIF
Ignoring BSIM parameter ACM
Ignoring BSIM parameter XL
Ignoring BSIM parameter XW
Ignoring BSIM parameter HDIF
Ignoring BSIM parameter ACM
Ignoring BSIM parameter XL
Ignoring BSIM parameter XW
Direct Newton iteration for .op point succeeded.

tdpr=2.64219e-010 FROM 1.00067e-006 TO 1.00093e-006
tdpf=1.57367e-010 FROM 3.002e-006 TO 3.00216e-006
trise=2.66225e-010 FROM 1.00079e-006 TO 1.00105e-006
tfall=2.6504e-010 FROM 3.002e-006 TO 3.00227e-006


Date: Sat Apr 18 20:57:03 2020
Total elapsed time: 0.088 seconds.

tnom = 27
temp = 27
method = modified trap
totiter = 2773
traniter = 2765
tranpoints = 1285
accept = 1216
rejected = 69
matrix size = 14
fillins = 0
solver = Normal
Thread vector: 21.6/16.5[2] 3.6/3.4[1] 0.8/1.5[1] 0.1/1.0[1]  2592/500
Matrix Compiler1: 690 bytes object code size  0.2/0.2/[0.1]
Matrix Compiler2: 1.27 KB object code size  0.2/0.3/[0.1]

