Circuit: *** SPICE deck for cell comp_sz1_sim{lay} from library folded

Ignoring BSIM parameter HDIF
Ignoring BSIM parameter ACM
Ignoring BSIM parameter XL
Ignoring BSIM parameter XW
Ignoring BSIM parameter HDIF
Ignoring BSIM parameter ACM
Ignoring BSIM parameter XL
Ignoring BSIM parameter XW
Ignoring BSIM parameter HDIF
Ignoring BSIM parameter ACM
Ignoring BSIM parameter XL
Ignoring BSIM parameter XW
Ignoring BSIM parameter HDIF
Ignoring BSIM parameter ACM
Ignoring BSIM parameter XL
Ignoring BSIM parameter XW
Direct Newton iteration for .op point succeeded.

tdpr=3.15825e-010 FROM 1.00067e-006 TO 1.00098e-006
tdpf=2.14025e-010 FROM 3.002e-006 TO 3.00221e-006
trise=3.14356e-010 FROM 1.00082e-006 TO 1.00113e-006
tfall=3.29212e-010 FROM 3.00203e-006 TO 3.00236e-006


Date: Sat Apr 18 21:10:37 2020
Total elapsed time: 0.097 seconds.

tnom = 27
temp = 27
method = modified trap
totiter = 2698
traniter = 2688
tranpoints = 1268
accept = 1213
rejected = 55
matrix size = 14
fillins = 0
solver = Normal
Matrix Compiler1: 636 bytes object code size  0.2/0.1/[0.1]
Matrix Compiler2: 1.29 KB object code size  0.1/0.2/[0.1]

