Circuit: *** SPICE deck for cell comp_sz4_sim{lay} from library folded

Ignoring BSIM parameter HDIF
Ignoring BSIM parameter ACM
Ignoring BSIM parameter XL
Ignoring BSIM parameter XW
Ignoring BSIM parameter HDIF
Ignoring BSIM parameter ACM
Ignoring BSIM parameter XL
Ignoring BSIM parameter XW
Ignoring BSIM parameter HDIF
Ignoring BSIM parameter ACM
Ignoring BSIM parameter XL
Ignoring BSIM parameter XW
Ignoring BSIM parameter HDIF
Ignoring BSIM parameter ACM
Ignoring BSIM parameter XL
Ignoring BSIM parameter XW
Limiting rise time of source vw to 2e-007
Limiting fall time of source vw to 2e-007
Direct Newton iteration for .op point succeeded.

tdpr=8.86156e-009 FROM 1.1e-006 TO 1.10886e-006
tdpf=-6.65283e-009 FROM 3.3e-006 TO 3.29335e-006
trise=9.73142e-009 FROM 1.10414e-006 TO 1.11387e-006
tfall=1.07937e-008 FROM 3.28531e-006 TO 3.2961e-006


Date: Sat Apr 18 19:47:47 2020
Total elapsed time: 0.110 seconds.

tnom = 27
temp = 27
method = modified trap
totiter = 2710
traniter = 2702
tranpoints = 1213
accept = 1159
rejected = 54
matrix size = 14
fillins = 0
solver = Normal
Thread vector: 44.9/21.9[4] 9.3/4.4[4] 1.9/2.3[1] 0.1/1.1[1]  2592/500
Matrix Compiler1: 690 bytes object code size  0.3/0.2/[0.1]
Matrix Compiler2: 1.27 KB object code size  0.3/0.3/[0.1]

