Circuit: *** SPICE deck for cell comp_sz4_sim{lay} from library folded

Ignoring BSIM parameter HDIF
Ignoring BSIM parameter ACM
Ignoring BSIM parameter XL
Ignoring BSIM parameter XW
Ignoring BSIM parameter HDIF
Ignoring BSIM parameter ACM
Ignoring BSIM parameter XL
Ignoring BSIM parameter XW
Ignoring BSIM parameter HDIF
Ignoring BSIM parameter ACM
Ignoring BSIM parameter XL
Ignoring BSIM parameter XW
Ignoring BSIM parameter HDIF
Ignoring BSIM parameter ACM
Ignoring BSIM parameter XL
Ignoring BSIM parameter XW
Direct Newton iteration for .op point succeeded.

tdpr=1.67147e-010 FROM 1.00033e-006 TO 1.0005e-006
tdpf=1.2323e-010 FROM 3.001e-006 TO 3.00112e-006
trise=1.64012e-010 FROM 1.00042e-006 TO 1.00058e-006
tfall=1.54239e-010 FROM 3.00103e-006 TO 3.00119e-006


Date: Sat Apr 18 20:34:24 2020
Total elapsed time: 0.114 seconds.

tnom = 27
temp = 27
method = modified trap
totiter = 2782
traniter = 2774
tranpoints = 1300
accept = 1234
rejected = 66
matrix size = 14
fillins = 0
solver = Normal
Thread vector: 39.0/20.8[4] 8.7/4.0[4] 1.7/2.1[1] 0.1/1.1[1]  2592/500
Matrix Compiler1: 690 bytes object code size  0.3/0.2/[0.1]
Matrix Compiler2: 1.27 KB object code size  0.3/0.4/[0.1]

