Circuit: *** SPICE deck for cell INV_S1_L1_TR0{sch} from library INV

Ignoring BSIM parameter HDIF
Ignoring BSIM parameter ACM
Ignoring BSIM parameter XL
Ignoring BSIM parameter XW
Ignoring BSIM parameter HDIF
Ignoring BSIM parameter ACM
Ignoring BSIM parameter XL
Ignoring BSIM parameter XW
Warning: Pd = 0 is less than W.
Warning: Ps = 0 is less than W.
Warning: Pd = 0 is less than W.
Warning: Ps = 0 is less than W.
Direct Newton iteration for .op point succeeded.

tpdr=3.07614e-11 FROM 2.00065e-08 TO 2.00373e-08
tpdf=1.52547e-11 FROM 1e-08 TO 1.00153e-08
trise=4.87192e-11 FROM 2.00227e-08 TO 2.00714e-08
tfall=4.58769e-11 FROM 1.00003e-08 TO 1.00462e-08


Date: Thu Apr  9 23:51:41 2020
Total elapsed time: 0.222 seconds.

tnom = 27
temp = 27
method = modified trap
totiter = 2396
traniter = 2384
tranpoints = 1103
accept = 1087
rejected = 16
matrix size = 6
fillins = 0
solver = Normal
Matrix Compiler1: 164 bytes object code size  0.2/0.2/[0.1]
Matrix Compiler2: off  [0.2]/0.3/2.5

