Circuit: *** SPICE deck for cell INV_S1_sim{sch} from library INV

Ignoring BSIM parameter HDIF
Ignoring BSIM parameter ACM
Ignoring BSIM parameter XL
Ignoring BSIM parameter XW
Ignoring BSIM parameter HDIF
Ignoring BSIM parameter ACM
Ignoring BSIM parameter XL
Ignoring BSIM parameter XW
Warning: Pd = 0 is less than W.
Warning: Ps = 0 is less than W.
Warning: Pd = 0 is less than W.
Warning: Ps = 0 is less than W.
Direct Newton iteration for .op point succeeded.

tpdr=9.61239e-14 FROM 2e-08 TO 2.00001e-08
tpdf=1.31523e-13 FROM 1.00001e-08 TO 1.00002e-08
trise=9.91422e-14 FROM 2.00001e-08 TO 2.00002e-08
tfall=-1.00372e-08 FROM 2.00374e-08 TO 1.00002e-08


Date: Sat Apr 11 00:53:59 2020
Total elapsed time: 0.138 seconds.

tnom = 27
temp = 27
method = modified trap
totiter = 2275
traniter = 2264
tranpoints = 1092
accept = 1082
rejected = 10
matrix size = 5
fillins = 0
solver = Normal
Matrix Compiler1:       8 opcodes  0.1/[0.0]/0.0
Matrix Compiler2:      28 opcodes  0.1/[0.1]/0.1

