Circuit: *** SPICE deck for cell INV_S1_L1_TR400{sch} from library INV

Ignoring BSIM parameter HDIF
Ignoring BSIM parameter ACM
Ignoring BSIM parameter XL
Ignoring BSIM parameter XW
Ignoring BSIM parameter HDIF
Ignoring BSIM parameter ACM
Ignoring BSIM parameter XL
Ignoring BSIM parameter XW
Warning: Pd = 0 is less than W.
Warning: Ps = 0 is less than W.
Warning: Pd = 0 is less than W.
Warning: Ps = 0 is less than W.
Direct Newton iteration for .op point succeeded.

tpdr=1.17986e-10 FROM 2.10005e-08 TO 2.11185e-08
tpdf=7.18999e-11 FROM 1.03335e-08 TO 1.04054e-08
trise=1.29681e-10 FROM 2.10458e-08 TO 2.11755e-08
tfall=1.40423e-10 FROM 1.03248e-08 TO 1.04652e-08


Date: Fri Apr 10 18:39:03 2020
Total elapsed time: 0.273 seconds.

tnom = 27
temp = 27
method = modified trap
totiter = 2378
traniter = 2366
tranpoints = 1108
accept = 1085
rejected = 23
matrix size = 6
fillins = 0
solver = Normal
Matrix Compiler1: 164 bytes object code size  0.2/0.1/[0.1]
Matrix Compiler2: off  [0.1]/0.2/0.2

