Circuit: *** SPICE deck for cell NOR3_S4_TR100{lay} from library NOR3

Ignoring BSIM parameter HDIF
Ignoring BSIM parameter ACM
Ignoring BSIM parameter XL
Ignoring BSIM parameter XW
Ignoring BSIM parameter HDIF
Ignoring BSIM parameter ACM
Ignoring BSIM parameter XL
Ignoring BSIM parameter XW
Direct Newton iteration for .op point succeeded.

tpdr_1=1.63236e-10 FROM 2.02495e-08 TO 2.04127e-08
tpdf_1=2.35256e-10 FROM 1.00845e-08 TO 1.03198e-08
tpdr_2=1.71192e-10 FROM 2.02495e-08 TO 2.04207e-08
tpdf_2=2.4401e-10 FROM 1.00845e-08 TO 1.03285e-08
tpdr_3=1.86108e-10 FROM 2.02495e-08 TO 2.04356e-08
tpdf_3=2.61138e-10 FROM 1.00845e-08 TO 1.03456e-08
tpdr_4=2.14873e-10 FROM 2.02495e-08 TO 2.04644e-08
tpdf_4=2.94179e-10 FROM 1.00845e-08 TO 1.03787e-08


Date: Sun Apr 12 05:58:08 2020
Total elapsed time: 0.320 seconds.

tnom = 27
temp = 27
method = modified trap
totiter = 2288
traniter = 2277
tranpoints = 1119
accept = 1096
rejected = 23
matrix size = 16
fillins = 0
solver = Normal
Thread vector: 31.9/24.8[2] 17.4/10.1[2] 2.1/5.6[1] 0.2/3.2[1]  2592/500
Matrix Compiler1: 934 bytes object code size  0.9/0.5/[0.2]
Matrix Compiler2: 1.61 KB object code size  1.7/0.8/[0.3]

