Circuit: *** SPICE deck for cell NOR3_S2_TR0{lay} from library NOR3

Ignoring BSIM parameter HDIF
Ignoring BSIM parameter ACM
Ignoring BSIM parameter XL
Ignoring BSIM parameter XW
Ignoring BSIM parameter HDIF
Ignoring BSIM parameter ACM
Ignoring BSIM parameter XL
Ignoring BSIM parameter XW
Direct Newton iteration for .op point succeeded.

tpdr_1=1.59315e-10 FROM 2.00145e-08 TO 2.01738e-08
tpdf_1=2.23986e-10 FROM 1e-08 TO 1.0224e-08
tpdr_2=1.73796e-10 FROM 2.00145e-08 TO 2.01883e-08
tpdf_2=2.40818e-10 FROM 1e-08 TO 1.02408e-08
tpdr_3=2.00682e-10 FROM 2.00145e-08 TO 2.02152e-08
tpdf_3=2.73064e-10 FROM 1e-08 TO 1.02731e-08
tpdr_4=2.54969e-10 FROM 2.00145e-08 TO 2.02694e-08
tpdf_4=3.35428e-10 FROM 1e-08 TO 1.03354e-08


Date: Sun Apr 12 05:22:36 2020
Total elapsed time: 0.291 seconds.

tnom = 27
temp = 27
method = modified trap
totiter = 2183
traniter = 2171
tranpoints = 1071
accept = 1064
rejected = 7
matrix size = 16
fillins = 0
solver = Normal
Thread vector: 30.1/24.8[2] 14.8/11.9[2] 2.3/6.2[1] 0.2/4.5[1]  2592/500
Matrix Compiler1: 934 bytes object code size  1.0/0.7/[0.2]
Matrix Compiler2: 1.61 KB object code size  0.8/0.8/[0.2]

