Circuit: *** SPICE deck for cell NOR3_S2_TR800{lay} from library NOR3

Ignoring BSIM parameter HDIF
Ignoring BSIM parameter ACM
Ignoring BSIM parameter XL
Ignoring BSIM parameter XW
Ignoring BSIM parameter HDIF
Ignoring BSIM parameter ACM
Ignoring BSIM parameter XL
Ignoring BSIM parameter XW
Direct Newton iteration for .op point succeeded.

tpdr_1=1.55338e-10 FROM 2.19914e-08 TO 2.21468e-08
tpdf_1=4.34204e-10 FROM 1.06746e-08 TO 1.11088e-08
tpdr_2=1.75261e-10 FROM 2.19914e-08 TO 2.21667e-08
tpdf_2=4.51478e-10 FROM 1.06746e-08 TO 1.11261e-08
tpdr_3=2.12395e-10 FROM 2.19914e-08 TO 2.22038e-08
tpdf_3=4.84465e-10 FROM 1.06746e-08 TO 1.1159e-08
tpdr_4=2.79976e-10 FROM 2.19914e-08 TO 2.22714e-08
tpdf_4=5.4595e-10 FROM 1.06746e-08 TO 1.12205e-08


Date: Sun Apr 12 06:03:38 2020
Total elapsed time: 0.427 seconds.

tnom = 27
temp = 27
method = modified trap
totiter = 2180
traniter = 2168
tranpoints = 1075
accept = 1066
rejected = 9
matrix size = 16
fillins = 0
solver = Normal
Thread vector: 73.4/34.8[2] 13.1/10.4[2] 2.6/8.6[1] 0.4/5.4[1]  2592/500
Matrix Compiler1: 934 bytes object code size  0.7/1.1/[0.2]
Matrix Compiler2: off  [0.5]/0.9/0.6

