Circuit: *** SPICE deck for cell NOR3_S1_TR0{lay} from library NOR3

Ignoring BSIM parameter HDIF
Ignoring BSIM parameter ACM
Ignoring BSIM parameter XL
Ignoring BSIM parameter XW
Ignoring BSIM parameter HDIF
Ignoring BSIM parameter ACM
Ignoring BSIM parameter XL
Ignoring BSIM parameter XW
Direct Newton iteration for .op point succeeded.

tpdr_1=1.74569e-10 FROM 2.00145e-08 TO 2.0189e-08
tpdf_1=2.34254e-10 FROM 1e-08 TO 1.02343e-08
tpdr_2=2.01486e-10 FROM 2.00145e-08 TO 2.0216e-08
tpdf_2=2.65601e-10 FROM 1e-08 TO 1.02656e-08
tpdr_3=2.55399e-10 FROM 2.00145e-08 TO 2.02699e-08
tpdf_3=3.25832e-10 FROM 1e-08 TO 1.03258e-08
tpdr_4=3.63817e-10 FROM 2.00145e-08 TO 2.03783e-08
tpdf_4=4.40837e-10 FROM 1e-08 TO 1.04408e-08


Date: Sun Apr 12 04:37:07 2020
Total elapsed time: 0.327 seconds.

tnom = 27
temp = 27
method = modified trap
totiter = 2199
traniter = 2187
tranpoints = 1077
accept = 1066
rejected = 11
matrix size = 16
fillins = 0
solver = Normal
Thread vector: 50.2/42.5[2] 21.7/12.1[2] 4.4/5.1[1] 0.4/6.5[1]  2592/500
Matrix Compiler1: 934 bytes object code size  0.8/0.9/[0.3]
Matrix Compiler2: 1.61 KB object code size  0.8/1.6/[0.4]

