Circuit: *** SPICE deck for cell NOR3_S1{sch} from library NOR3

