Circuit: *** SPICE deck for cell NOR3_S1_TR100{lay} from library NOR3

Ignoring BSIM parameter HDIF
Ignoring BSIM parameter ACM
Ignoring BSIM parameter XL
Ignoring BSIM parameter XW
Ignoring BSIM parameter HDIF
Ignoring BSIM parameter ACM
Ignoring BSIM parameter XL
Ignoring BSIM parameter XW
Direct Newton iteration for .op point succeeded.

tpdr_1=1.89005e-10 FROM 2.02495e-08 TO 2.04385e-08
tpdf_1=2.52369e-10 FROM 1.00845e-08 TO 1.03369e-08
tpdr_2=2.17613e-10 FROM 2.02495e-08 TO 2.04671e-08
tpdf_2=2.83779e-10 FROM 1.00845e-08 TO 1.03683e-08
tpdr_3=2.73441e-10 FROM 2.02495e-08 TO 2.05229e-08
tpdf_3=3.4392e-10 FROM 1.00845e-08 TO 1.04284e-08
tpdr_4=3.82794e-10 FROM 2.02495e-08 TO 2.06323e-08
tpdf_4=4.58911e-10 FROM 1.00845e-08 TO 1.05434e-08


Date: Sun Apr 12 05:12:59 2020
Total elapsed time: 0.523 seconds.

tnom = 27
temp = 27
method = modified trap
totiter = 2259
traniter = 2247
tranpoints = 1108
accept = 1087
rejected = 21
matrix size = 16
fillins = 0
solver = Normal
Thread vector: 29.5/26.4[2] 16.7/7.3[2] 2.1/9.4[1] 0.3/2.7[1]  2592/500
Matrix Compiler1: 934 bytes object code size  0.7/0.4/[0.1]
Matrix Compiler2: 1.61 KB object code size  0.5/0.5/[0.2]

