Circuit: *** SPICE deck for cell NOR3_S1_simNEW{lay} from library NOR3

Ignoring BSIM parameter HDIF
Ignoring BSIM parameter ACM
Ignoring BSIM parameter XL
Ignoring BSIM parameter XW
Ignoring BSIM parameter HDIF
Ignoring BSIM parameter ACM
Ignoring BSIM parameter XL
Ignoring BSIM parameter XW
Direct Newton iteration for .op point succeeded.

tpdr=2.83241e-10 FROM 2.09965e-08 TO 2.12797e-08
tpdf=4.15412e-10 FROM 1.03375e-08 TO 1.0753e-08
trise=-1.12022e-08 FROM 2.12023e-08 TO 1e-08
tfall=6.67522e-10 FROM 1.0203e-08 TO 1.08706e-08


Date: Sun Apr 12 03:56:48 2020
Total elapsed time: 0.107 seconds.

tnom = 27
temp = 27
method = modified trap
totiter = 2170
traniter = 2158
tranpoints = 1070
accept = 1062
rejected = 8
matrix size = 7
fillins = 0
solver = Normal
Matrix Compiler1: 322 bytes object code size  0.1/0.1/[0.1]
Matrix Compiler2: 571 bytes object code size  0.1/0.2/[0.1]

