Circuit: *** SPICE deck for cell NOR3_S2{lay} from library NOR3

