Circuit: *** SPICE deck for cell NOR3_S1_sim{lay} from library NOR3

Ignoring BSIM parameter HDIF
Ignoring BSIM parameter ACM
Ignoring BSIM parameter XL
Ignoring BSIM parameter XW
Ignoring BSIM parameter HDIF
Ignoring BSIM parameter ACM
Ignoring BSIM parameter XL
Ignoring BSIM parameter XW
Direct Newton iteration for .op point succeeded.

tpdr_1=1.93711e-10 FROM 2.09965e-08 TO 2.11902e-08
tpdf_1=3.30623e-10 FROM 1.03375e-08 TO 1.06682e-08
tpdr_2=2.24219e-10 FROM 2.09965e-08 TO 2.12207e-08
tpdf_2=3.58873e-10 FROM 1.03375e-08 TO 1.06964e-08
tpdr_3=2.82925e-10 FROM 2.09965e-08 TO 2.12794e-08
tpdf_3=4.15412e-10 FROM 1.03375e-08 TO 1.0753e-08
tpdr_4=3.94915e-10 FROM 2.09965e-08 TO 2.13914e-08
tpdf_4=5.26264e-10 FROM 1.03375e-08 TO 1.08638e-08


Date: Sun Apr 12 04:17:39 2020
Total elapsed time: 0.196 seconds.

tnom = 27
temp = 27
method = modified trap
totiter = 2172
traniter = 2160
tranpoints = 1069
accept = 1061
rejected = 8
matrix size = 16
fillins = 0
solver = Normal
Thread vector: 19.6/15.6[2] 6.8/5.2[2] 1.2/3.3[1] 0.1/1.9[1]  2592/500
Matrix Compiler1: 934 bytes object code size  0.4/0.3/[0.1]
Matrix Compiler2: 1.61 KB object code size  0.2/0.6/[0.2]

