Circuit: *** SPICE deck for cell somp_sim_lay{lay} from library noname

Ignoring BSIM parameter HDIF
Ignoring BSIM parameter ACM
Ignoring BSIM parameter XL
Ignoring BSIM parameter XW
Ignoring BSIM parameter HDIF
Ignoring BSIM parameter ACM
Ignoring BSIM parameter XL
Ignoring BSIM parameter XW
Ignoring BSIM parameter HDIF
Ignoring BSIM parameter ACM
Ignoring BSIM parameter XL
Ignoring BSIM parameter XW
Ignoring BSIM parameter HDIF
Ignoring BSIM parameter ACM
Ignoring BSIM parameter XL
Ignoring BSIM parameter XW
WARNING: Node COMP@0:NET@42 is floating.
WARNING: Node COMP@0:NET@43 is floating.

WARNING: Less than two connections to node Y.  This node is used by VY.
WARNING: Less than two connections to node Z.  This node is used by VZ.
Direct Newton iteration for .op point succeeded.
Ignoring empty pin current: Ix(comp@0:y)
Ignoring empty pin current: Ix(comp@0:z)
Ignoring empty pin current: Ix(comp@0:y)
Ignoring empty pin current: Ix(comp@0:z)

tdpr=3.00014e-006 FROM 1.00008e-006 TO 4.00022e-006
tdpf=3.00018e-006 FROM 3.00025e-006 TO 6.00043e-006
trise=1.42842e-010 FROM 1.00017e-006 TO 1.00031e-006
tfall=2.00665e-010 FROM 3.00035e-006 TO 3.00055e-006


Date: Mon Apr 13 03:28:51 2020
Total elapsed time: 0.072 seconds.

tnom = 27
temp = 27
method = modified trap
totiter = 3117
traniter = 3093
tranpoints = 1458
accept = 1347
rejected = 111
matrix size = 15
fillins = 2
solver = Normal
Matrix Compiler1: 702 bytes object code size  0.2/0.1/[0.1]
Matrix Compiler2: off  [0.1]/0.1/0.1

