Circuit: *** SPICE deck for cell somp_sim_lay{lay} from library noname

Ignoring BSIM parameter HDIF
Ignoring BSIM parameter ACM
Ignoring BSIM parameter XL
Ignoring BSIM parameter XW
Ignoring BSIM parameter HDIF
Ignoring BSIM parameter ACM
Ignoring BSIM parameter XL
Ignoring BSIM parameter XW
Ignoring BSIM parameter HDIF
Ignoring BSIM parameter ACM
Ignoring BSIM parameter XL
Ignoring BSIM parameter XW
Ignoring BSIM parameter HDIF
Ignoring BSIM parameter ACM
Ignoring BSIM parameter XL
Ignoring BSIM parameter XW
Direct Newton iteration for .op point succeeded.

tdpr=1.28564e-010 FROM 8.333e-011 TO 2.11894e-010
tdpf=2.00014e-006 FROM 1.00025e-006 TO 3.00039e-006
trise=1.04211e-010 FROM 1.74589e-010 TO 2.788e-010
tfall=1.39589e-010 FROM 3.00033e-006 TO 3.00047e-006


Date: Sun Apr 12 21:23:00 2020
Total elapsed time: 0.070 seconds.

tnom = 27
temp = 27
method = modified trap
totiter = 3840
traniter = 3832
tranpoints = 1700
accept = 1539
rejected = 161
matrix size = 14
fillins = 0
solver = Normal
Matrix Compiler1: 636 bytes object code size  0.2/0.1/[0.1]
Matrix Compiler2: off  [0.1]/0.1/0.1

